Test_Network/condensed/network_17/Feeder_4/Lines.txt
New Line.LINE1 Bus1=1 Bus2=2 phases=3 Linecode=3c_300_SAC_XC Length=0.63343 Units=m
New Line.LINE2 Bus1=2 Bus2=3 phases=3 Linecode=3c_300_SAC_XC Length=0.11327 Units=m
New Line.LINE3 Bus1=3 Bus2=4 phases=3 Linecode=3c_300_SAC_XC Length=0.11322 Units=m
New Line.LINE4 Bus1=4 Bus2=5 phases=3 Linecode=3c_300_SAC_XC Length=0.113 Units=m
New Line.LINE5 Bus1=5 Bus2=6 phases=3 Linecode=3c_300_SAC_XC Length=0.11323 Units=m
New Line.LINE6 Bus1=6 Bus2=7 phases=3 Linecode=3c_300_SAC_XC Length=0.11318 Units=m
New Line.LINE7 Bus1=7 Bus2=8 phases=3 Linecode=3c_300_SAC_XC Length=0.11307 Units=m
New Line.LINE8 Bus1=8 Bus2=9 phases=3 Linecode=3c_300_SAC_XC Length=0.1127 Units=m
New Line.LINE9 Bus1=9 Bus2=10 phases=3 Linecode=3c_300_SAC_XC Length=0.11337 Units=m
New Line.LINE10 Bus1=10 Bus2=11 phases=3 Linecode=3c_300_SAC_XC Length=1.775 Units=m
New Line.LINE11 Bus1=11 Bus2=12 phases=3 Linecode=3c_300_SAC_XC Length=1.0447 Units=m
New Line.LINE12 Bus1=12 Bus2=13 phases=3 Linecode=3c_300_SAC_XC Length=0.14625 Units=m
New Line.LINE13 Bus1=13 Bus2=14 phases=3 Linecode=3c_300_SAC_XC Length=0.14463 Units=m
New Line.LINE14 Bus1=14 Bus2=15 phases=3 Linecode=3c_300_SAC_XC Length=0.14534 Units=m
New Line.LINE15 Bus1=15 Bus2=16 phases=3 Linecode=3c_300_SAC_XC Length=0.14649 Units=m
New Line.LINE16 Bus1=16 Bus2=17 phases=3 Linecode=3c_300_SAC_XC Length=0.14578 Units=m
New Line.LINE17 Bus1=17 Bus2=18 phases=3 Linecode=3c_300_SAC_XC Length=3.6542 Units=m
New Line.LINE18 Bus1=18 Bus2=19 phases=3 Linecode=3c_300_SAC_XC Length=0.20492 Units=m
New Line.LINE19 Bus1=19 Bus2=20 phases=3 Linecode=3c_300_SAC_XC Length=0.20395 Units=m
New Line.LINE20 Bus1=20 Bus2=21 phases=3 Linecode=3c_300_SAC_XC Length=0.205 Units=m
New Line.LINE21 Bus1=21 Bus2=22 phases=3 Linecode=3c_300_SAC_XC Length=0.20583 Units=m
New Line.LINE22 Bus1=22 Bus2=23 phases=3 Linecode=3c_300_SAC_XC Length=0.20386 Units=m
New Line.LINE23 Bus1=23 Bus2=24 phases=3 Linecode=3c_300_SAC_XC Length=0.26428 Units=m
New Line.LINE24 Bus1=24 Bus2=25 phases=3 Linecode=3c_300_SAC_XC Length=0.68618 Units=m
New Line.LINE25 Bus1=25 Bus2=26 phases=3 Linecode=3c_300_SAC_XC Length=0.34171 Units=m
New Line.LINE26 Bus1=26 Bus2=27 phases=3 Linecode=3c_300_SAC_XC Length=0.82954 Units=m
New Line.LINE27 Bus1=27 Bus2=28 phases=3 Linecode=3c_300_SAC_XC Length=29.1676 Units=m
New Line.LINE28 Bus1=28 Bus2=29 phases=3 Linecode=3c_300_SAC_XC Length=0.93062 Units=m
New Line.LINE29 Bus1=29 Bus2=30 phases=3 Linecode=3c_300_SAC_XC Length=0.44288 Units=m
New Line.LINE30 Bus1=30 Bus2=31 phases=3 Linecode=3c_300_SAC_XC Length=0.44293 Units=m
New Line.LINE31 Bus1=31 Bus2=32 phases=3 Linecode=3c_300_SAC_XC Length=0.073593 Units=m
New Line.LINE32 Bus1=32 Bus2=33 phases=3 Linecode=3c_300_SAC_XC Length=0.072945 Units=m
New Line.LINE33 Bus1=33 Bus2=34 phases=3 Linecode=3c_300_SAC_XC Length=0.87728 Units=m
New Line.LINE34 Bus1=34 Bus2=35 phases=3 Linecode=4c_.25 Length=1.5185 Units=m
New Line.LINE35 Bus1=35 Bus2=36 phases=3 Linecode=4c_.25 Length=9.173 Units=m
New Line.LINE36 Bus1=36 Bus2=37 phases=3 Linecode=4c_.25 Length=0.23938 Units=m
New Line.LINE37 Bus1=37 Bus2=38 phases=3 Linecode=4c_.25 Length=0.2438 Units=m
New Line.LINE38 Bus1=38 Bus2=39 phases=3 Linecode=4c_.25 Length=0.23471 Units=m
New Line.LINE39 Bus1=39 Bus2=40 phases=3 Linecode=4c_.25 Length=0.24512 Units=m
New Line.LINE40 Bus1=40 Bus2=41 phases=3 Linecode=4c_.25 Length=0.37887 Units=m
New Line.LINE41 Bus1=41 Bus2=42 phases=3 Linecode=4c_.25 Length=0.28956 Units=m
New Line.LINE42 Bus1=42 Bus2=43 phases=3 Linecode=4c_.25 Length=1.0657 Units=m
New Line.LINE44 Bus1=43 Bus2=45 phases=3 Linecode=4c_.25 Length=10.0833 Units=m
New Line.LINE46 Bus1=45 Bus2=47 phases=3 Linecode=4c_.25 Length=5.4379 Units=m
New Line.LINE50 Bus1=47 Bus2=51 phases=3 Linecode=2c_.04 Length=6.3571 Units=m
New Line.LINE58 Bus1=54 Bus2=59 phases=3 Linecode=2c_.04 Length=6.5276 Units=m
New Line.LINE103 Bus1=97 Bus2=104 phases=3 Linecode=2c_.04 Length=3.5564 Units=m
New Line.LINE105 Bus1=98 Bus2=106 phases=3 Linecode=2c_.04 Length=4.3132 Units=m
New Line.LINE113 Bus1=108 Bus2=114 phases=3 Linecode=2c_.04 Length=4.3549 Units=m
New Line.LINE115 Bus1=109 Bus2=116 phases=3 Linecode=2c_.04 Length=3.113 Units=m
New Line.LINE193 Bus1=187 Bus2=194 phases=3 Linecode=2c_.04 Length=2.7077 Units=m
New Line.LINE195 Bus1=188 Bus2=196 phases=3 Linecode=2c_.04 Length=4.1456 Units=m
New Line.LINE199 Bus1=191 Bus2=200 phases=3 Linecode=2c_.04 Length=5.0178 Units=m
New Line.LINE214 Bus1=207 Bus2=215 phases=3 Linecode=2c_.04 Length=2.9792 Units=m
New Line.LINE246 Bus1=237 Bus2=247 phases=3 Linecode=2c_.04 Length=5.7233 Units=m
New Line.LINE251 Bus1=240 Bus2=252 phases=3 Linecode=4c_.3_SAC Length=0.23632 Units=m
New Line.LINE262 Bus1=252 Bus2=263 phases=3 Linecode=4c_.3_SAC Length=0.71779 Units=m
New Line.LINE273 Bus1=263 Bus2=274 phases=3 Linecode=4c_.3_SAC Length=0.76073 Units=m
New Line.LINE278 Bus1=269 Bus2=279 phases=3 Linecode=2c_.04 Length=9.0513 Units=m
New Line.LINE285 Bus1=274 Bus2=286 phases=3 Linecode=4c_.3_SAC Length=0.78487 Units=m
New Line.LINE295 Bus1=284 Bus2=296 phases=3 Linecode=4c_.25 Length=16.8578 Units=m
New Line.LINE298 Bus1=286 Bus2=299 phases=3 Linecode=4c_.3_SAC Length=1.1049 Units=m
New Line.LINE312 Bus1=299 Bus2=313 phases=3 Linecode=4c_.3_SAC Length=1.4551 Units=m
New Line.LINE320 Bus1=307 Bus2=321 phases=3 Linecode=2c_.04 Length=8.9534 Units=m
New Line.LINE328 Bus1=313 Bus2=329 phases=3 Linecode=4c_.3_SAC Length=1.0758 Units=m
New Line.LINE345 Bus1=329 Bus2=346 phases=3 Linecode=4c_.3_SAC Length=0.97966 Units=m
New Line.LINE361 Bus1=346 Bus2=362 phases=3 Linecode=4c_.3_SAC Length=1.0848 Units=m
New Line.LINE365 Bus1=351 Bus2=366 phases=3 Linecode=2c_.04 Length=3.5182 Units=m
New Line.LINE366 Bus1=351 Bus2=367 phases=3 Linecode=2c_.04 Length=3.5182 Units=m
New Line.LINE367 Bus1=352 Bus2=368 phases=3 Linecode=2c_.04 Length=5.7275 Units=m
New Line.LINE368 Bus1=352 Bus2=369 phases=3 Linecode=2c_.04 Length=5.7275 Units=m
New Line.LINE377 Bus1=360 Bus2=378 phases=3 Linecode=2c_.04 Length=3.0639 Units=m
New Line.LINE380 Bus1=362 Bus2=381 phases=3 Linecode=4c_.3_SAC Length=1.4187 Units=m
New Line.LINE394 Bus1=381 Bus2=395 phases=3 Linecode=4c_.3_SAC Length=2.2706 Units=m
New Line.LINE404 Bus1=392 Bus2=405 phases=3 Linecode=2c_.04 Length=3.6684 Units=m
New Line.LINE408 Bus1=395 Bus2=409 phases=3 Linecode=4c_.3_SAC Length=7.0711 Units=m
New Line.LINE409 Bus1=397 Bus2=410 phases=3 Linecode=2c_.04 Length=2.02 Units=m
New Line.LINE410 Bus1=397 Bus2=411 phases=3 Linecode=2c_.04 Length=2.02 Units=m
New Line.LINE411 Bus1=398 Bus2=412 phases=3 Linecode=2c_.04 Length=3.7331 Units=m
New Line.LINE412 Bus1=398 Bus2=413 phases=3 Linecode=2c_.04 Length=3.7331 Units=m
New Line.LINE421 Bus1=409 Bus2=422 phases=3 Linecode=4c_.12 Length=0.61264 Units=m
New Line.LINE431 Bus1=422 Bus2=432 phases=3 Linecode=4c_.12 Length=20.749 Units=m
New Line.LINE435 Bus1=425 Bus2=436 phases=3 Linecode=4c_.25 Length=5.5845 Units=m
New Line.LINE443 Bus1=432 Bus2=444 phases=3 Linecode=4c_.12 Length=3.7383 Units=m
New Line.LINE451 Bus1=440 Bus2=452 phases=3 Linecode=2c_.04 Length=2.8778 Units=m
New Line.LINE456 Bus1=444 Bus2=457 phases=3 Linecode=2c_.04 Length=5.9176 Units=m
New Line.LINE475 Bus1=463 Bus2=476 phases=3 Linecode=4c_.25 Length=1.4842 Units=m
New Line.LINE477 Bus1=465 Bus2=478 phases=3 Linecode=2c_.04 Length=4.827 Units=m
New Line.LINE490 Bus1=476 Bus2=491 phases=3 Linecode=4c_.25 Length=5.7832 Units=m
New Line.LINE496 Bus1=483 Bus2=497 phases=3 Linecode=2c_.04 Length=3.7578 Units=m
New Line.LINE506 Bus1=491 Bus2=507 phases=3 Linecode=4c_.25 Length=8.7539 Units=m
New Line.LINE507 Bus1=492 Bus2=508 phases=3 Linecode=2c_.04 Length=4.9729 Units=m
New Line.LINE523 Bus1=507 Bus2=524 phases=3 Linecode=2c_.04 Length=9.8871 Units=m
New Line.LINE565 Bus1=547 Bus2=566 phases=3 Linecode=2c_.04 Length=2.9529 Units=m
New Line.LINE566 Bus1=547 Bus2=567 phases=3 Linecode=2c_.04 Length=2.9529 Units=m
New Line.LINE631 Bus1=617 Bus2=632 phases=3 Linecode=2c_.04 Length=5.0365 Units=m
New Line.LINE636 Bus1=622 Bus2=637 phases=3 Linecode=2c_.04 Length=10.1351 Units=m
New Line.LINE665 Bus1=649 Bus2=666 phases=3 Linecode=2c_.04 Length=4.4506 Units=m
New Line.LINE666 Bus1=649 Bus2=667 phases=3 Linecode=2c_.04 Length=4.4506 Units=m
New Line.LINE692 Bus1=675 Bus2=693 phases=3 Linecode=4c_.12 Length=5.8229 Units=m
New Line.LINE693 Bus1=675 Bus2=694 phases=3 Linecode=2c_.04 Length=5.7031 Units=m
New Line.LINE709 Bus1=693 Bus2=710 phases=3 Linecode=4c_.12 Length=0.74149 Units=m
New Line.LINE726 Bus1=710 Bus2=727 phases=3 Linecode=4c_.04 Length=1.4913 Units=m
New Line.LINE740 Bus1=724 Bus2=741 phases=3 Linecode=2c_.04 Length=4.293 Units=m
New Line.LINE742 Bus1=725 Bus2=743 phases=3 Linecode=2c_.04 Length=1.8769 Units=m
New Line.LINE745 Bus1=727 Bus2=746 phases=3 Linecode=4c_.04 Length=5.047 Units=m
New Line.LINE760 Bus1=746 Bus2=761 phases=3 Linecode=4c_.04 Length=8.5363 Units=m
New Line.LINE770 Bus1=757 Bus2=771 phases=3 Linecode=2c_.04 Length=5.1535 Units=m
New Line.LINE775 Bus1=761 Bus2=776 phases=3 Linecode=4c_.04 Length=7.4185 Units=m
New Line.LINE784 Bus1=770 Bus2=785 phases=3 Linecode=2c_.04 Length=5.3109 Units=m
New Line.LINE797 Bus1=782 Bus2=798 phases=3 Linecode=2c_.04 Length=4.0706 Units=m
New Line.LINE812 Bus1=797 Bus2=813 phases=3 Linecode=2c_.04 Length=7.2653 Units=m
New Line.LINE813 Bus1=797 Bus2=814 phases=3 Linecode=4c_.06 Length=1.8591 Units=m
New Line.LINE815 Bus1=800 Bus2=816 phases=3 Linecode=2c_.04 Length=3.9397 Units=m
New Line.LINE816 Bus1=800 Bus2=817 phases=3 Linecode=2c_.04 Length=3.9397 Units=m
New Line.LINE828 Bus1=813 Bus2=829 phases=3 Linecode=2c_.04 Length=5.2662 Units=m
New Line.LINE872 Bus1=858 Bus2=873 phases=3 Linecode=2c_.04 Length=5.52 Units=m
New Line.LINE877 Bus1=862 Bus2=878 phases=3 Linecode=2c_.04 Length=4.0492 Units=m
New Line.LINE928 Bus1=915 Bus2=929 phases=3 Linecode=2c_.04 Length=1.4203 Units=m
New Line.LINE955 Bus1=945 Bus2=956 phases=3 Linecode=2c_.04 Length=3.5946 Units=m
New Line.LINE956 Bus1=945 Bus2=957 phases=3 Linecode=2c_.04 Length=3.5946 Units=m
New Line.LINE960 Bus1=948 Bus2=961 phases=3 Linecode=2c_.04 Length=5.896 Units=m
New Line.LINE961 Bus1=948 Bus2=962 phases=3 Linecode=2c_.04 Length=5.896 Units=m
New Line.LINE1019 Bus1=1009 Bus2=1020 phases=3 Linecode=2c_.04 Length=6.6052 Units=m
New Line.LINE1020 Bus1=1009 Bus2=1021 phases=3 Linecode=2c_.04 Length=6.6052 Units=m
New Line.LINE1054 Bus1=1044 Bus2=1055 phases=3 Linecode=2c_.04 Length=6.4201 Units=m
New Line.LINE1059 Bus1=1047 Bus2=1060 phases=3 Linecode=4c_.06 Length=1.3338 Units=m
New Line.LINE1070 Bus1=1060 Bus2=1071 phases=3 Linecode=4c_.06 Length=0.2865 Units=m
New Line.LINE1082 Bus1=1071 Bus2=1083 phases=3 Linecode=4c_.06 Length=0.257 Units=m
New Line.LINE1086 Bus1=1074 Bus2=1087 phases=3 Linecode=4c_.06 Length=0.74271 Units=m
New Line.LINE1094 Bus1=1083 Bus2=1095 phases=3 Linecode=4c_.06 Length=0.58313 Units=m
New Line.LINE1098 Bus1=1087 Bus2=1099 phases=3 Linecode=4c_.06 Length=0.24299 Units=m
New Line.LINE1105 Bus1=1095 Bus2=1106 phases=3 Linecode=4c_.06 Length=3.2188 Units=m
New Line.LINE1108 Bus1=1099 Bus2=1109 phases=3 Linecode=4c_.06 Length=0.20972 Units=m
New Line.LINE1109 Bus1=1100 Bus2=1110 phases=3 Linecode=2c_.04 Length=7.853 Units=m
New Line.LINE1110 Bus1=1100 Bus2=1111 phases=3 Linecode=2c_.04 Length=7.853 Units=m
New Line.LINE1116 Bus1=1106 Bus2=1117 phases=3 Linecode=4c_.06 Length=0.25724 Units=m
New Line.LINE1119 Bus1=1109 Bus2=1120 phases=3 Linecode=4c_.06 Length=0.2016 Units=m
New Line.LINE1125 Bus1=1117 Bus2=1126 phases=3 Linecode=4c_.06 Length=0.25668 Units=m
New Line.LINE1128 Bus1=1120 Bus2=1129 phases=3 Linecode=4c_.06 Length=0.40719 Units=m
New Line.LINE1135 Bus1=1126 Bus2=1136 phases=3 Linecode=4c_.06 Length=3.5558 Units=m
New Line.LINE1138 Bus1=1129 Bus2=1139 phases=3 Linecode=4c_.06 Length=2.8208 Units=m
New Line.LINE1145 Bus1=1136 Bus2=1146 phases=3 Linecode=4c_.06 Length=0.45477 Units=m
New Line.LINE1148 Bus1=1139 Bus2=1149 phases=3 Linecode=4c_.06 Length=0.74131 Units=m
New Line.LINE1154 Bus1=1146 Bus2=1155 phases=3 Linecode=4c_.06 Length=0.24253 Units=m
New Line.LINE1158 Bus1=1149 Bus2=1159 phases=3 Linecode=4c_.06 Length=0.20494 Units=m
New Line.LINE1164 Bus1=1155 Bus2=1165 phases=3 Linecode=4c_.06 Length=0.191 Units=m
New Line.LINE1167 Bus1=1159 Bus2=1168 phases=3 Linecode=4c_.06 Length=0.2229 Units=m
New Line.LINE1173 Bus1=1165 Bus2=1174 phases=3 Linecode=4c_.06 Length=0.58421 Units=m
New Line.LINE1176 Bus1=1168 Bus2=1177 phases=3 Linecode=4c_.06 Length=0.3875 Units=m
New Line.LINE1181 Bus1=1174 Bus2=1182 phases=3 Linecode=4c_.06 Length=4.3502 Units=m
New Line.LINE1184 Bus1=1177 Bus2=1185 phases=3 Linecode=4c_.06 Length=2.5562 Units=m
New Line.LINE1189 Bus1=1182 Bus2=1190 phases=3 Linecode=4c_.06 Length=0.33534 Units=m
New Line.LINE1192 Bus1=1185 Bus2=1193 phases=3 Linecode=4c_.06 Length=0.53222 Units=m
New Line.LINE1197 Bus1=1190 Bus2=1198 phases=3 Linecode=4c_.04 Length=0.21541 Units=m
New Line.LINE1200 Bus1=1193 Bus2=1201 phases=3 Linecode=4c_.06 Length=0.26624 Units=m
New Line.LINE1203 Bus1=1196 Bus2=1204 phases=3 Linecode=2c_.04 Length=4.8154 Units=m
New Line.LINE1205 Bus1=1197 Bus2=1206 phases=3 Linecode=2c_.04 Length=5.1199 Units=m
New Line.LINE1207 Bus1=1198 Bus2=1208 phases=3 Linecode=4c_.04 Length=0.030083 Units=m
New Line.LINE1209 Bus1=1200 Bus2=1210 phases=3 Linecode=3c_.04 Length=5.031 Units=m
New Line.LINE1211 Bus1=1201 Bus2=1212 phases=3 Linecode=4c_.06 Length=0.2066 Units=m
New Line.LINE1216 Bus1=1208 Bus2=1217 phases=3 Linecode=4c_.04 Length=0.2757 Units=m
New Line.LINE1219 Bus1=1212 Bus2=1220 phases=3 Linecode=4c_.06 Length=0.83873 Units=m
New Line.LINE1224 Bus1=1217 Bus2=1225 phases=3 Linecode=4c_.04 Length=0.33435 Units=m
New Line.LINE1225 Bus1=1218 Bus2=1226 phases=3 Linecode=2c_.04 Length=5.6364 Units=m
New Line.LINE1228 Bus1=1220 Bus2=1229 phases=3 Linecode=4c_.06 Length=3.3674 Units=m
New Line.LINE1233 Bus1=1225 Bus2=1234 phases=3 Linecode=4c_.04 Length=0.38783 Units=m
New Line.LINE1236 Bus1=1229 Bus2=1237 phases=3 Linecode=4c_.06 Length=0.89699 Units=m
New Line.LINE1237 Bus1=1230 Bus2=1238 phases=3 Linecode=2c_.04 Length=2.9033 Units=m
New Line.LINE1238 Bus1=1230 Bus2=1239 phases=3 Linecode=2c_.04 Length=2.9033 Units=m
New Line.LINE1242 Bus1=1234 Bus2=1243 phases=3 Linecode=4c_.04 Length=12.2915 Units=m
New Line.LINE1245 Bus1=1237 Bus2=1246 phases=3 Linecode=4c_.04 Length=0.37448 Units=m
New Line.LINE1252 Bus1=1246 Bus2=1253 phases=3 Linecode=4c_.04 Length=0.17832 Units=m
New Line.LINE1259 Bus1=1253 Bus2=1260 phases=3 Linecode=4c_.04 Length=0.084095 Units=m
New Line.LINE1266 Bus1=1260 Bus2=1267 phases=3 Linecode=4c_.04 Length=0.060828 Units=m
New Line.LINE1273 Bus1=1267 Bus2=1274 phases=3 Linecode=4c_.04 Length=0.22698 Units=m
New Line.LINE1280 Bus1=1274 Bus2=1281 phases=3 Linecode=4c_.04 Length=0.62263 Units=m
New Line.LINE1284 Bus1=1278 Bus2=1285 phases=3 Linecode=2c_.04 Length=4.25 Units=m
New Line.LINE1288 Bus1=1281 Bus2=1289 phases=3 Linecode=4c_.04 Length=13.7079 Units=m
New Line.LINE1291 Bus1=1284 Bus2=1292 phases=3 Linecode=2c_.04 Length=5.6122 Units=m
New Line.LINE1295 Bus1=1288 Bus2=1296 phases=3 Linecode=2c_.04 Length=5.4356 Units=m
New Line.LINE1299 Bus1=1290 Bus2=1300 phases=3 Linecode=2c_.04 Length=5.8275 Units=m
New Line.LINE1330 Bus1=1323 Bus2=1331 phases=3 Linecode=2c_.04 Length=3.4503 Units=m
New Line.LINE1334 Bus1=1326 Bus2=1335 phases=3 Linecode=2c_.04 Length=4.095 Units=m
New Line.LINE1365 Bus1=1358 Bus2=1366 phases=3 Linecode=2c_.04 Length=4.4487 Units=m
New Line.LINE1371 Bus1=1363 Bus2=1372 phases=3 Linecode=2c_.04 Length=4.3293 Units=m
New Line.LINE1394 Bus1=1387 Bus2=1395 phases=3 Linecode=2c_.04 Length=5.0988 Units=m
New Line.LINE1396 Bus1=1388 Bus2=1397 phases=3 Linecode=2c_.04 Length=3.9097 Units=m
New Line.LINE1428 Bus1=1423 Bus2=1429 phases=3 Linecode=2c_.04 Length=1.733 Units=m
New Line.LINE1442 Bus1=1437 Bus2=1443 phases=3 Linecode=2c_.04 Length=6.4539 Units=m
New Line.LINE1464 Bus1=1461 Bus2=1465 phases=3 Linecode=2c_.04 Length=5.5541 Units=m
New Line.LINE1478 Bus1=1475 Bus2=1479 phases=3 Linecode=2c_.04 Length=5.1458 Units=m
New Line.LINE1488 Bus1=1485 Bus2=1489 phases=3 Linecode=2c_.04 Length=1.6821 Units=m
New Line.LINE1490 Bus1=1486 Bus2=1491 phases=3 Linecode=2c_.04 Length=4.9056 Units=m
New Line.LINECmpd_0 Bus1=1358 Bus2=1437 phases=3 Linecode=2c_.04 Length=6.63987 Units=m
New Line.LINECmpd_1 Bus1=915 Bus2=1140 phases=3 Linecode=2c_.04 Length=26.09478 Units=m
New Line.LINECmpd_2 Bus1=1290 Bus2=1418 phases=3 Linecode=2c_.04 Length=13.14885 Units=m
New Line.LINECmpd_3 Bus1=177 Bus2=202 phases=3 Linecode=4c_.25 Length=41.5429 Units=m
New Line.LINECmpd_4 Bus1=1125 Bus2=1197 phases=3 Linecode=2c_.04 Length=3.58482 Units=m
New Line.LINECmpd_5 Bus1=108 Bus2=173 phases=3 Linecode=2c_.04 Length=10.54764 Units=m
New Line.LINECmpd_6 Bus1=840 Bus2=933 phases=3 Linecode=25_PSC Length=5.27912 Units=m
New Line.LINECmpd_7 Bus1=109 Bus2=207 phases=3 Linecode=2c_.04 Length=8.095808 Units=m
New Line.LINECmpd_8 Bus1=1288 Bus2=1408 phases=3 Linecode=2c_.04 Length=14.054081 Units=m
New Line.LINECmpd_9 Bus1=321 Bus2=397 phases=3 Linecode=2c_.04 Length=8.01495 Units=m
New Line.LINECmpd_10 Bus1=1289 Bus2=1323 phases=3 Linecode=2c_.04 Length=3.07338 Units=m
New Line.LINECmpd_11 Bus1=1486 Bus2=1528 phases=3 Linecode=2c_.04 Length=11.42466 Units=m
New Line.LINECmpd_12 Bus1=59 Bus2=109 phases=3 Linecode=2c_.04 Length=7.548121 Units=m
New Line.LINECmpd_13 Bus1=296 Bus2=392 phases=3 Linecode=2c_.04 Length=10.88752 Units=m
New Line.LINECmpd_14 Bus1=1218 Bus2=1363 phases=3 Linecode=2c_.04 Length=11.87662 Units=m
New Line.LINECmpd_15 Bus1=1148 Bus2=1200 phases=3 Linecode=2c_.04 Length=5.434946 Units=m
New Line.LINECmpd_16 Bus1=724 Bus2=915 phases=3 Linecode=2c_.04 Length=7.32606 Units=m
New Line.LINECmpd_17 Bus1=840 Bus2=1009 phases=3 Linecode=2c_.04 Length=6.927924 Units=m
New Line.LINECmpd_18 Bus1=1387 Bus2=1461 phases=3 Linecode=2c_.04 Length=12.43988 Units=m
New Line.LINECmpd_19 Bus1=51 Bus2=97 phases=3 Linecode=2c_.04 Length=3.97698 Units=m
New Line.LINECmpd_20 Bus1=1461 Bus2=1525 phases=3 Linecode=2c_.04 Length=15.36962 Units=m
New Line.LINECmpd_21 Bus1=881 Bus2=1074 phases=3 Linecode=4c_.06 Length=32.97298 Units=m
New Line.LINECmpd_22 Bus1=269 Bus2=385 phases=3 Linecode=2c_.04 Length=11.95737 Units=m
New Line.LINECmpd_23 Bus1=592 Bus2=724 phases=3 Linecode=2c_.04 Length=3.43465 Units=m
New Line.LINECmpd_24 Bus1=187 Bus2=382 phases=3 Linecode=2c_.04 Length=15.566996 Units=m
New Line.LINECmpd_25 Bus1=457 Bus2=649 phases=3 Linecode=2c_.04 Length=13.99566 Units=m
New Line.LINECmpd_26 Bus1=1326 Bus2=1438 phases=3 Linecode=2c_.04 Length=12.77822 Units=m
New Line.LINECmpd_27 Bus1=881 Bus2=1047 phases=3 Linecode=4c_.06 Length=24.75066 Units=m
New Line.LINECmpd_28 Bus1=1197 Bus2=1326 phases=3 Linecode=2c_.04 Length=9.95853 Units=m
New Line.LINECmpd_29 Bus1=609 Bus2=797 phases=3 Linecode=4c_.06 Length=21.54794 Units=m
New Line.LINECmpd_30 Bus1=97 Bus2=187 phases=3 Linecode=2c_.04 Length=8.84202 Units=m
New Line.LINECmpd_31 Bus1=617 Bus2=770 phases=3 Linecode=2c_.04 Length=7.94768 Units=m
New Line.LINECmpd_32 Bus1=490 Bus2=752 phases=3 Linecode=2c_.04 Length=10.19677 Units=m
New Line.LINECmpd_33 Bus1=360 Bus2=547 phases=3 Linecode=2c_.04 Length=15.5242 Units=m
New Line.LINECmpd_34 Bus1=1243 Bus2=1284 phases=3 Linecode=2c_.04 Length=2.85129 Units=m
New Line.LINECmpd_35 Bus1=694 Bus2=948 phases=3 Linecode=2c_.04 Length=17.75291 Units=m
New Line.LINECmpd_36 Bus1=1323 Bus2=1423 phases=3 Linecode=2c_.04 Length=8.13876 Units=m
New Line.LINECmpd_37 Bus1=188 Bus2=348 phases=3 Linecode=2c_.04 Length=16.57002 Units=m
New Line.LINECmpd_38 Bus1=440 Bus2=782 phases=3 Linecode=2c_.04 Length=24.13004 Units=m
New Line.LINECmpd_39 Bus1=1044 Bus2=1170 phases=3 Linecode=2c_.04 Length=19.87153 Units=m
New Line.LINECmpd_40 Bus1=392 Bus2=440 phases=3 Linecode=2c_.04 Length=3.53963 Units=m
New Line.LINECmpd_41 Bus1=1047 Bus2=1125 phases=3 Linecode=4c_.04 Length=16.60874 Units=m
New Line.LINECmpd_42 Bus1=813 Bus2=1000 phases=3 Linecode=2c_.04 Length=17.72656 Units=m
New Line.LINECmpd_43 Bus1=609 Bus2=675 phases=3 Linecode=4c_.12 Length=38.76192 Units=m
New Line.LINECmpd_44 Bus1=444 Bus2=520 phases=3 Linecode=4c_.12 Length=33.6262 Units=m
New Line.LINECmpd_45 Bus1=1200 Bus2=1288 phases=3 Linecode=2c_.04 Length=11.19727 Units=m
New Line.LINECmpd_46 Bus1=649 Bus2=757 phases=3 Linecode=2c_.04 Length=7.32705 Units=m
New Line.LINECmpd_47 Bus1=1388 Bus2=1475 phases=3 Linecode=2c_.04 Length=13.033913 Units=m
New Line.LINECmpd_48 Bus1=1485 Bus2=1534 phases=3 Linecode=2c_.04 Length=14.839953 Units=m
New Line.LINECmpd_49 Bus1=1284 Bus2=1387 phases=3 Linecode=2c_.04 Length=9.13558 Units=m
New Line.LINECmpd_50 Bus1=483 Bus2=684 phases=3 Linecode=2c_.04 Length=17.9505 Units=m
New Line.LINECmpd_51 Bus1=191 Bus2=269 phases=3 Linecode=2c_.04 Length=6.60306 Units=m
New Line.LINECmpd_52 Bus1=776 Bus2=840 phases=3 Linecode=2c_.04 Length=1.09313 Units=m
New Line.LINECmpd_53 Bus1=1278 Bus2=1388 phases=3 Linecode=2c_.04 Length=8.232838 Units=m
New Line.LINECmpd_54 Bus1=725 Bus2=853 phases=3 Linecode=2c_.04 Length=11.34234 Units=m
New Line.LINECmpd_55 Bus1=770 Bus2=1100 phases=3 Linecode=2c_.04 Length=21.93453 Units=m
New Line.LINECmpd_56 Bus1=54 Bus2=177 phases=3 Linecode=4c_.25 Length=83.2647 Units=m
New Line.LINECmpd_57 Bus1=357 Bus2=425 phases=3 Linecode=4c_.25 Length=24.65438 Units=m
New Line.LINECmpd_58 Bus1=279 Bus2=351 phases=3 Linecode=2c_.04 Length=8.72513 Units=m
New Line.LINECmpd_59 Bus1=390 Bus2=465 phases=3 Linecode=2c_.04 Length=9.47056 Units=m
New Line.LINECmpd_60 Bus1=520 Bus2=592 phases=3 Linecode=4c_.04 Length=19.2592 Units=m
New Line.LINECmpd_61 Bus1=1437 Bus2=1486 phases=3 Linecode=2c_.04 Length=10.32635 Units=m
New Line.LINECmpd_62 Bus1=51 Bus2=98 phases=3 Linecode=2c_.04 Length=4.141891 Units=m
New Line.LINECmpd_63 Bus1=307 Bus2=414 phases=3 Linecode=2c_.04 Length=11.96312 Units=m
New Line.LINECmpd_64 Bus1=757 Bus2=943 phases=3 Linecode=2c_.04 Length=18.21874 Units=m
New Line.LINECmpd_65 Bus1=390 Bus2=492 phases=3 Linecode=2c_.04 Length=7.85955 Units=m
New Line.LINECmpd_66 Bus1=1423 Bus2=1485 phases=3 Linecode=2c_.04 Length=9.09104 Units=m
New Line.LINECmpd_67 Bus1=321 Bus2=398 phases=3 Linecode=2c_.04 Length=8.0103 Units=m
New Line.LINECmpd_68 Bus1=858 Bus2=1022 phases=3 Linecode=2c_.04 Length=8.39579 Units=m
New Line.LINECmpd_69 Bus1=823 Bus2=932 phases=3 Linecode=25_PSC Length=5.12374 Units=m
New Line.LINECmpd_70 Bus1=1475 Bus2=1531 phases=3 Linecode=2c_.04 Length=11.39824 Units=m
New Line.LINECmpd_71 Bus1=207 Bus2=383 phases=3 Linecode=2c_.04 Length=11.346017 Units=m
New Line.LINECmpd_72 Bus1=1022 Bus2=1230 phases=3 Linecode=2c_.04 Length=18.980297 Units=m
New Line.LINECmpd_73 Bus1=490 Bus2=610 phases=3 Linecode=2c_.04 Length=5.48418 Units=m
New Line.LINECmpd_74 Bus1=465 Bus2=527 phases=3 Linecode=2c_.04 Length=10.28319 Units=m
New Line.LINECmpd_75 Bus1=1125 Bus2=1196 phases=3 Linecode=2c_.04 Length=6.045155 Units=m
New Line.LINECmpd_76 Bus1=694 Bus2=858 phases=3 Linecode=2c_.04 Length=3.61595 Units=m
New Line.LINECmpd_77 Bus1=1289 Bus2=1358 phases=3 Linecode=2c_.04 Length=4.41046 Units=m
New Line.LINECmpd_78 Bus1=177 Bus2=191 phases=3 Linecode=2c_.04 Length=6.36419 Units=m
New Line.LINECmpd_79 Bus1=1022 Bus2=1090 phases=3 Linecode=2c_.04 Length=6.11291 Units=m
New Line.LINECmpd_80 Bus1=237 Bus2=307 phases=3 Linecode=2c_.04 Length=6.79371 Units=m
New Line.LINECmpd_81 Bus1=823 Bus2=945 phases=3 Linecode=2c_.04 Length=7.129699 Units=m
New Line.LINECmpd_82 Bus1=1243 Bus2=1278 phases=3 Linecode=2c_.04 Length=3.6524 Units=m
New Line.LINECmpd_83 Bus1=1148 Bus2=1218 phases=3 Linecode=2c_.04 Length=3.04463 Units=m
New Line.LINECmpd_84 Bus1=284 Bus2=360 phases=3 Linecode=2c_.04 Length=12.35227 Units=m
New Line.LINECmpd_85 Bus1=547 Bus2=800 phases=3 Linecode=2c_.04 Length=17.13623 Units=m
New Line.LINECmpd_86 Bus1=862 Bus2=1024 phases=3 Linecode=2c_.04 Length=11.44483 Units=m
New Line.LINECmpd_87 Bus1=1196 Bus2=1290 phases=3 Linecode=2c_.04 Length=11.518622 Units=m
New Line.LINECmpd_88 Bus1=948 Bus2=1044 phases=3 Linecode=2c_.04 Length=8.15672 Units=m
New Line.LINECmpd_89 Bus1=622 Bus2=691 phases=3 Linecode=2c_.04 Length=5.14951 Units=m
New Line.LINECmpd_90 Bus1=1074 Bus2=1148 phases=3 Linecode=2c_.04 Length=16.99533 Units=m
New Line.LINECmpd_91 Bus1=1363 Bus2=1441 phases=3 Linecode=2c_.04 Length=12.48781 Units=m
New Line.LINECmpd_92 Bus1=520 Bus2=609 phases=3 Linecode=4c_.12 Length=16.01617 Units=m
New Line.LINECmpd_93 Bus1=524 Bus2=560 phases=3 Linecode=2c_.04 Length=3.8912 Units=m
New Line.LINECmpd_94 Bus1=98 Bus2=188 phases=3 Linecode=2c_.04 Length=7.90992 Units=m
New Line.LINECmpd_95 Bus1=457 Bus2=617 phases=3 Linecode=2c_.04 Length=7.01431 Units=m
New Line.LINECmpd_96 Bus1=814 Bus2=862 phases=3 Linecode=2c_.04 Length=14.9238 Units=m
New Line.LINECmpd_97 Bus1=296 Bus2=357 phases=3 Linecode=4c_.25 Length=42.3649 Units=m
New Line.LINECmpd_98 Bus1=492 Bus2=564 phases=3 Linecode=2c_.04 Length=11.13588 Units=m
New Line.LINECmpd_99 Bus1=202 Bus2=237 phases=3 Linecode=2c_.04 Length=6.1183 Units=m
New Line.LINECmpd_100 Bus1=240 Bus2=284 phases=3 Linecode=4c_.25 Length=29.3625 Units=m
New Line.LINECmpd_101 Bus1=945 Bus2=1077 phases=3 Linecode=2c_.04 Length=18.96491 Units=m
New Line.LINECmpd_102 Bus1=202 Bus2=240 phases=3 Linecode=4c_.25 Length=24.0901 Units=m
New Line.LINECmpd_103 Bus1=59 Bus2=108 phases=3 Linecode=2c_.04 Length=5.0082 Units=m
New Line.LINECmpd_104 Bus1=814 Bus2=881 phases=3 Linecode=4c_.06 Length=42.09534 Units=m
New Line.LINECmpd_105 Bus1=463 Bus2=490 phases=3 Linecode=2c_.04 Length=7.5534 Units=m
New Line.LINECmpd_106 Bus1=637 Bus2=725 phases=3 Linecode=2c_.04 Length=6.47779 Units=m
New Line.LINECmpd_107 Bus1=357 Bus2=390 phases=3 Linecode=2c_.04 Length=9.65465 Units=m
New Line.LINECmpd_108 Bus1=279 Bus2=352 phases=3 Linecode=2c_.04 Length=8.21146 Units=m
New Line.LINECmpd_109 Bus1=436 Bus2=462 phases=3 Linecode=2c_.04 Length=11.6902 Units=m
New Line.LINECmpd_110 Bus1=425 Bus2=461 phases=3 Linecode=2c_.04 Length=15.2468 Units=m
New Line.LINECmpd_111 Bus1=524 Bus2=581 phases=3 Linecode=2c_.04 Length=6.14798 Units=m
New Line.LINECmpd_112 Bus1=776 Bus2=823 phases=3 Linecode=2c_.04 Length=1.03516 Units=m
New Line.LINECmpd_113 Bus1=637 Bus2=707 phases=3 Linecode=25_PSC Length=4.47236 Units=m
New Line.LINECmpd_114 Bus1=432 Bus2=483 phases=3 Linecode=2c_.04 Length=15.55822 Units=m
New Line.LINECmpd_115 Bus1=47 Bus2=54 phases=3 Linecode=4c_.25 Length=45.6272 Units=m
New Line.LINECmpd_116 Bus1=592 Bus2=622 phases=3 Linecode=2c_.04 Length=6.45 Units=m
New Line.LINECmpd_117 Bus1=436 Bus2=463 phases=3 Linecode=4c_.25 Length=14.5738 Units=m
New Line.LINECmpd_118 Bus1=782 Bus2=815 phases=3 Linecode=2c_.04 Length=7.3863 Units=m
